[Format]      =  4.0
[Frequency]   =  0
[Precision]   =  1e-008
[MinAngle]    =  30
[DoSmartMesh] =  0
[Depth]       =  210
[LengthUnits] =  millimeters
[ProblemType] =  planar
[Coordinates] =  cartesian
[ACSolver]    =  0
[PrevType]    =  0
[PrevSoln]    =  ""
[Comment]     =  "Add comments here."
[PointProps]   = 0
[BdryProps]   = 1
  <BeginBdry>
    <BdryName> = "zero"
    <BdryType> = 0
    <A_0> = 0
    <A_1> = 0
    <A_2> = 0
    <Phi> = 0
    <c0> = 0
    <c0i> = 0
    <c1> = 0
    <c1i> = 0
    <Mu_ssd> = 0
    <Sigma_ssd> = 0
    <innerangle> = 0
    <outerangle> = 0
  <EndBdry>
[BlockProps]  = 2
  <BeginBlock>
    <BlockName> = "Air"
    <Mu_x> = 1
    <Mu_y> = 1
    <H_c> = 0
    <H_cAngle> = 0
    <J_re> = 0
    <J_im> = 0
    <Sigma> = 0
    <d_lam> = 0
    <Phi_h> = 0
    <Phi_hx> = 0
    <Phi_hy> = 0
    <LamType> = 0
    <LamFill> = 1
    <NStrands> = 0
    <WireD> = 0
    <BHPoints> = 0
  <EndBlock>
  <BeginBlock>
    <BlockName> = "M-19 Steel"
    <Mu_x> = 4416
    <Mu_y> = 4416
    <H_c> = 0
    <H_cAngle> = 0
    <J_re> = 0
    <J_im> = 0
    <Sigma> = 1.8999999999999999
    <d_lam> = 0.63500000000000001
    <Phi_h> = 0
    <Phi_hx> = 0
    <Phi_hy> = 0
    <LamType> = 0
    <LamFill> = 0.97999999999999998
    <NStrands> = 0
    <WireD> = 0
    <BHPoints> = 47
      0	0
      0.050000000000000003	15.120714
      0.10000000000000001	22.718292000000002
      0.14999999999999999	27.842732999999999
      0.20000000000000001	31.871434000000001
      0.25	35.365043999999997
      0.29999999999999999	38.600588000000002
      0.34999999999999998	41.736201999999999
      0.40000000000000002	44.873978999999999
      0.45000000000000001	48.087806999999998
      0.5	51.437235999999999
      0.55000000000000004	54.975220999999998
      0.59999999999999998	58.752992999999996
      0.65000000000000002	62.823644000000002
      0.69999999999999996	67.245284999999996
      0.75	72.084406000000001
      0.80000000000000004	77.420100000000005
      0.84999999999999998	83.350020999999998
      0.90000000000000002	89.999611999999999
      0.94999999999999996	97.537352999999996
      1	106.20140600000001
      1.05	116.34846400000001
      1.1000000000000001	128.54732899999999
      1.1499999999999999	143.76543100000001
      1.2	163.75416899999999
      1.25	191.86815799999999
      1.3	234.833507
      1.3500000000000001	306.50976900000001
      1.3999999999999999	435.255202
      1.45	674.911968
      1.5	1108.3255690000001
      1.55	1813.085468
      1.6000000000000001	2801.2174209999998
      1.6499999999999999	4053.6531169999998
      1.7	5591.10689
      1.75	7448.318413
      1.8	9708.81567
      1.8500000000000001	12486.931615
      1.8999999999999999	16041.483644
      1.95	21249.420623999998
      2	31313.495878000002
      2.0499999999999998	53589.446877000002
      2.1000000000000001	88477.484601000004
      2.1499999999999999	124329.41054
      2.2000000000000002	159968.5693
      2.25	197751.604272
      2.2999999999999998	234024.75134700001
  <EndBlock>
[CircuitProps]  = 4
  <BeginCircuit>
    <CircuitName> = "a"
    <TotalAmps_re> = 0
    <TotalAmps_im> = 0
    <CircuitType> = 1
  <EndCircuit>
  <BeginCircuit>
    <CircuitName> = "b"
    <TotalAmps_re> = 0
    <TotalAmps_im> = 0
    <CircuitType> = 1
  <EndCircuit>
  <BeginCircuit>
    <CircuitName> = "c"
    <TotalAmps_re> = 0
    <TotalAmps_im> = 0
    <CircuitType> = 1
  <EndCircuit>
  <BeginCircuit>
    <CircuitName> = "f"
    <TotalAmps_re> = 1
    <TotalAmps_im> = 0
    <CircuitType> = 1
  <EndCircuit>
[NumPoints] = 352
-63.498031465550199	-27	0	1
-61.498031465550199	-27	0	1
-63.498031465550199	27	0	1
-61.498031465550199	27	0	1
-61.498031465550199	-18	0	1
-37.498031465550199	-27	0	1
-37.498031465550199	-15	0	1
-61.498031465550199	18	0	1
-37.498031465550199	27	0	1
-37.498031465550199	15	0	1
-27	-15	0	1
-27	15	0	1
-27	-63.498031465550199	0	1
-27	-61.498031465550199	0	1
-27	-37.498031465550199	0	1
-15	-37.498031465550199	0	1
-18	-61.498031465550199	0	1
-27	37.498031465550199	0	1
-27	61.498031465550199	0	1
-15	37.498031465550199	0	1
-27	63.498031465550199	0	1
-18	61.498031465550199	0	1
27	-63.498031465550199	0	1
27	-61.498031465550199	0	1
15	-37.498031465550199	0	1
15	-27	0	1
27	-37.498031465550199	0	1
15	37.498031465550199	0	1
15	27	0	1
27	63.498031465550199	0	1
27	61.498031465550199	0	1
27	37.498031465550199	0	1
37.498031465550199	-15	0	1
37.498031465550199	-27	0	1
61.498031465550199	-27	0	1
63.498031465550199	-27	0	1
37.498031465550199	15	0	1
37.498031465550199	27	0	1
63.498031465550199	27	0	1
61.498031465550199	27	0	1
61.498031465550199	18	0	1
-15	58.498031465550199	0	1
15	58.498031465550199	0	1
18	61.498031465550199	0	1
58.498031465550199	15	0	1
58.498031465550199	-15	0	1
61.498031465550199	-18	0	1
18	-61.498031465550199	0	1
15	-58.498031465550199	0	1
-15	-58.498031465550199	0	1
-58.498031465550199	-15	0	1
-58.498031465550199	15	0	1
27	15	0	1
-15	27	0	1
-15	-27	0	1
27	-15	0	1
65.673287250244798	24.228482035547302	0	0
67.601773763788202	24.939947881183102	0	0
65.436878917837106	30.166466379389799	0	0
63.570150702652001	29.305902812268201	0	0
68.26951964361362	23.327866721889897	0	0
57.1647316675881	40.400414024767699	0	0
58.843365685879299	41.586766297518402	0	0
55.399515316058597	46.074879479737398	0	0
53.8191245630412	44.760494090971001	0	0
59.905595982876804	40.202440822670617	0	0
44.760494090971001	53.8191245630412	0	0
46.074879479737398	55.399515316058597	0	0
41.586766297518402	58.843365685879299	0	0
40.400414024767699	57.1647316675881	0	0
47.459204954585182	54.337285019061099	0	0
29.305902812268201	63.570150702652001	0	0
30.166466379389799	65.436878917837106	0	0
24.939947881183102	67.601773763788202	0	0
24.228482035547302	65.673287250244798	0	0
31.778547538683092	64.769133038011731	0	0
11.854162687203599	68.988976126518295	0	0
12.2022584477296	71.014827360920506	0	0
6.5935132319578003	71.753232676908198	0	0
6.4054190350639404	69.706316837035899	0	0
13.932234624552548	70.787071676475094	0	0
-6.4054190350639102	69.706316837035899	0	0
-6.5935132319577798	71.753232676908198	0	0
-12.2022584477296	71.014827360920506	0	0
-11.8541626872035	68.988976126518295	0	0
-4.8635370551348682	71.980988361353681	0	0
-24.228482035547302	65.673287250244798	0	0
-24.939947881183102	67.601773763788202	0	0
-30.166466379389799	65.436878917837106	0	0
-29.305902812268201	63.570150702652001	0	0
-23.327866721889897	68.26951964361362	0	0
-40.400414024767699	57.1647316675881	0	0
-41.586766297518402	58.843365685879299	0	0
-46.074879479737398	55.399515316058597	0	0
-44.760494090971001	53.8191245630412	0	0
-40.202440822670617	59.905595982876804	0	0
-53.8191245630412	44.760494090971001	0	0
-55.399515316058597	46.074879479737398	0	0
-58.843365685879299	41.586766297518402	0	0
-57.1647316675881	40.400414024767699	0	0
-54.337285019061099	47.459204954585182	0	0
-63.570150702652001	29.305902812268201	0	0
-65.436878917837106	30.166466379389799	0	0
-67.601773763788202	24.939947881183102	0	0
-65.673287250244798	24.228482035547302	0	0
-64.769133038011731	31.778547538683092	0	0
-68.988976126518295	11.854162687203599	0	0
-71.014827360920506	12.2022584477296	0	0
-71.753232676908198	6.5935132319577896	0	0
-69.706316837035899	6.4054190350639297	0	0
-70.787071676475094	13.932234624552548	0	0
-69.706316837035899	-6.4054190350639102	0	0
-71.753232676908198	-6.5935132319577798	0	0
-71.014827360920506	-12.2022584477296	0	0
-68.988976126518295	-11.8541626872035	0	0
-71.980988361353681	-4.8635370551348682	0	0
-65.673287250244798	-24.228482035547199	0	0
-67.601773763788202	-24.939947881183102	0	0
-65.436878917837106	-30.166466379389799	0	0
-63.570150702652001	-29.305902812268201	0	0
-68.26951964361362	-23.327866721889897	0	0
-57.1647316675881	-40.400414024767699	0	0
-58.843365685879299	-41.586766297518402	0	0
-55.399515316058597	-46.074879479737398	0	0
-53.8191245630412	-44.760494090971001	0	0
-59.905595982876804	-40.202440822670617	0	0
-44.7604940909711	-53.8191245630412	0	0
-46.074879479737398	-55.399515316058498	0	0
-41.586766297518402	-58.843365685879299	0	0
-40.400414024767798	-57.1647316675881	0	0
-47.459204954585189	-54.337285019061056	0	0
-29.305902812268201	-63.570150702652001	0	0
-30.166466379389799	-65.436878917837106	0	0
-24.939947881183102	-67.601773763788202	0	0
-24.228482035547199	-65.673287250244798	0	0
-31.778547538682989	-64.769133038011745	0	0
-11.854162687203599	-68.988976126518295	0	0
-12.2022584477296	-71.014827360920506	0	0
-6.5935132319578003	-71.753232676908198	0	0
-6.4054190350639297	-69.706316837035899	0	0
-13.932234624552548	-70.787071676475094	0	0
6.4054190350639599	-69.706316837035899	0	0
6.5935132319578296	-71.753232676908198	0	0
12.202258447729699	-71.014827360920506	0	0
11.854162687203599	-68.988976126518295	0	0
4.8635370551349659	-71.98098836135361	0	0
24.228482035547302	-65.673287250244798	0	0
24.939947881183102	-67.601773763788202	0	0
30.166466379389799	-65.436878917837106	0	0
29.305902812268201	-63.570150702652001	0	0
23.327866721889897	-68.26951964361362	0	0
40.400414024767699	-57.1647316675881	0	0
41.586766297518402	-58.843365685879299	0	0
46.074879479737398	-55.399515316058597	0	0
44.760494090971001	-53.8191245630412	0	0
40.202440822670617	-59.905595982876804	0	0
53.8191245630412	-44.7604940909711	0	0
55.399515316058498	-46.074879479737398	0	0
58.843365685879299	-41.586766297518402	0	0
57.1647316675881	-40.400414024767798	0	0
54.337285019061056	-47.459204954585189	0	0
63.570150702652001	-29.305902812268201	0	0
65.436878917837106	-30.166466379389799	0	0
67.601773763788202	-24.939947881183102	0	0
65.673287250244798	-24.228482035547199	0	0
64.769133038011745	-31.778547538682989	0	0
68.988976126518295	-11.854162687203599	0	0
71.014827360920506	-12.2022584477296	0	0
71.753232676908198	-6.5935132319578003	0	0
69.706316837035899	-6.4054190350639297	0	0
70.787071676475094	-13.932234624552548	0	0
69.706316837035899	6.4054190350639004	0	0
71.753232676908198	6.5935132319577603	0	0
71.014827360920506	12.2022584477296	0	0
68.988976126518295	11.8541626872035	0	0
71.980988361353681	4.8635370551348576	0	0
49.840630899265065	76.362922104622925	0	0
39.973786020008532	61.245515014493662	0	0
60.725294377660013	69.367304859998768	0	0
51.286808559944596	76.609709753588533	0	0
40.202440822670617	59.905595982876804	0	0
48.812647570043254	54.463218004142526	0	0
60.861214135100646	67.906531164497721	0	0
28.378174003784373	86.660623128410606	0	0
22.760206578415801	69.504601823705471	0	0
40.702550543187833	82.720533968735481	0	0
29.711201011988663	87.273300013341313	0	0
23.327866721889897	68.26951964361362	0	0
33.053278860408561	65.241071686017492	0	0
41.211915000183154	81.344713551718641	0	0
17.905995153342555	90.436495389648684	0	0
6.1108242151469794	91.989359103132415	0	0
4.9817914470957563	91.052545899448205	0	0
3.9955566715238122	73.027064880417015	0	0
4.8635370551349357	71.98098836135361	0	0
15.04138381956297	71.572854148459044	0	0
18.754091963912881	89.239388138885019	0	0
-6.1108242151469394	91.989359103132415	0	0
-17.905995153342555	90.43649538964867	0	0
-18.754091963912881	89.239388138885019	0	0
-15.04138381956297	71.572854148459044	0	0
-3.9955566715237798	73.027064880417086	0	0
-4.9817914470957163	91.052545899448205	0	0
-13.932234624552548	70.787071676475094	0	0
-29.711201011988663	87.273300013341313	0	0
-40.702550543187833	82.720533968735481	0	0
-41.211915000183147	81.344713551718641	0	0
-33.053278860408469	65.241071686017492	0	0
-31.778547538682989	64.769133038011745	0	0
-22.760206578415801	69.504601823705471	0	0
-28.378174003784373	86.660623128410606	0	0
-51.286808559944596	76.609709753588533	0	0
-60.725294377660013	69.367304859998768	0	0
-60.861214135100646	67.906531164497721	0	0
-48.812647570043254	54.463218004142526	0	0
-47.459204954585182	54.337285019061099	0	0
-39.973786020008532	61.245515014493662	0	0
-49.840630899265065	76.362922104622925	0	0
-69.367304859998768	60.725294377660013	0	0
-76.609709753588533	51.286808559944596	0	0
-76.362922104622925	49.840630899265065	0	0
-61.245515014493662	39.973786020008532	0	0
-54.463218004142526	48.812647570043254	0	0
-67.906531164497721	60.861214135100646	0	0
-59.905595982876804	40.202440822670617	0	0
-82.720533968735481	40.702550543187833	0	0
-87.273300013341313	29.711201011988663	0	0
-65.241071686017492	33.053278860408561	0	0
-81.344713551718641	41.211915000183154	0	0
-86.660623128410606	28.378174003784373	0	0
-69.504601823705471	22.760206578415801	0	0
-68.26951964361362	23.327866721889897	0	0
-71.572854148459044	15.04138381956297	0	0
-89.239388138885019	18.754091963912881	0	0
-90.436495389648684	17.905995153342555	0	0
-91.989359103132415	6.1108242151469589	0	0
-91.052545899448205	4.9817914470957358	0	0
-73.027064880417015	3.9955566715238016	0	0
-71.98098836135361	4.8635370551349251	0	0
-91.989359103132415	-6.1108242151469394	0	0
-90.43649538964867	-17.905995153342555	0	0
-73.027064880417086	-3.9955566715237798	0	0
-91.052545899448205	-4.9817914470957163	0	0
-89.239388138885019	-18.754091963912881	0	0
-71.572854148459044	-15.04138381956297	0	0
-70.787071676475094	-13.932234624552548	0	0
-69.504601823705471	-22.760206578415801	0	0
-86.660623128410606	-28.378174003784373	0	0
-87.273300013341313	-29.711201011988663	0	0
-82.720533968735481	-40.702550543187833	0	0
-64.769133038011745	-31.778547538682989	0	0
-81.344713551718641	-41.211915000183147	0	0
-65.241071686017492	-33.053278860408469	0	0
-61.245515014493662	-39.973786020008532	0	0
-76.362922104622925	-49.840630899265065	0	0
-76.609709753588533	-51.286808559944596	0	0
-69.367304859998768	-60.725294377660013	0	0
-54.337285019061099	-47.459204954585182	0	0
-67.906531164497721	-60.861214135100646	0	0
-54.463218004142526	-48.812647570043254	0	0
-48.812647570043239	-54.463218004142504	0	0
-60.861214135100639	-67.906531164497721	0	0
-60.725294377660006	-69.367304859998768	0	0
-51.286808559944596	-76.609709753588447	0	0
-49.840630899265065	-76.362922104622839	0	0
-39.973786020008532	-61.245515014493662	0	0
-40.202440822670617	-59.905595982876804	0	0
-33.053278860408469	-65.241071686017492	0	0
-41.211915000183147	-81.344713551718641	0	0
-40.702550543187833	-82.720533968735481	0	0
-29.711201011988663	-87.273300013341313	0	0
-23.327866721889897	-68.26951964361362	0	0
-28.378174003784373	-86.660623128410606	0	0
-22.760206578415801	-69.504601823705471	0	0
-15.04138381956297	-71.572854148459044	0	0
-18.754091963912881	-89.239388138885019	0	0
-4.8635370551349268	-71.98098836135361	0	0
-17.905995153342555	-90.436495389648684	0	0
-6.1108242151469696	-91.989359103132415	0	0
-4.9817914470957465	-91.052545899448205	0	0
-3.995556671523802	-73.027064880417015	0	0
3.9955566715238424	-73.027064880417015	0	0
4.9817914470957865	-91.052545899448205	0	0
13.932234624552544	-70.787071676475094	0	0
6.1108242151470105	-91.989359103132415	0	0
17.905995153342555	-90.436495389648684	0	0
18.754091963912881	-89.239388138885019	0	0
15.04138381956297	-71.572854148459058	0	0
22.760206578415801	-69.504601823705471	0	0
28.378174003784373	-86.660623128410606	0	0
29.711201011988663	-87.273300013341313	0	0
40.702550543187833	-82.720533968735481	0	0
41.211915000183154	-81.344713551718641	0	0
33.053278860408561	-65.241071686017492	0	0
31.778547538683092	-64.769133038011731	0	0
39.973786020008532	-61.245515014493662	0	0
49.840630899265065	-76.362922104622925	0	0
51.286808559944596	-76.609709753588533	0	0
60.725294377660013	-69.367304859998768	0	0
60.861214135100646	-67.906531164497721	0	0
48.812647570043254	-54.463218004142526	0	0
47.459204954585182	-54.337285019061099	0	0
59.905595982876804	-40.202440822670617	0	0
54.463218004142504	-48.812647570043239	0	0
67.906531164497721	-60.861214135100639	0	0
69.367304859998768	-60.725294377660006	0	0
76.609709753588447	-51.286808559944596	0	0
76.362922104622839	-49.840630899265065	0	0
61.245515014493662	-39.973786020008532	0	0
68.26951964361362	-23.327866721889897	0	0
65.241071686017492	-33.053278860408469	0	0
81.344713551718641	-41.211915000183147	0	0
82.720533968735481	-40.702550543187833	0	0
87.273300013341313	-29.711201011988663	0	0
86.660623128410606	-28.378174003784373	0	0
69.504601823705471	-22.760206578415801	0	0
71.98098836135361	-4.8635370551349357	0	0
71.572854148459044	-15.04138381956297	0	0
89.239388138885019	-18.754091963912881	0	0
90.436495389648684	-17.905995153342555	0	0
91.989359103132415	-6.1108242151469696	0	0
91.052545899448205	-4.9817914470957465	0	0
73.027064880417015	-3.9955566715238118	0	0
70.787071676475094	13.932234624552445	0	0
73.027064880417086	3.99555667152377	0	0
91.052545899448205	4.9817914470957065	0	0
91.989359103132415	6.1108242151469305	0	0
90.436495389648684	17.905995153342456	0	0
89.239388138885019	18.754091963912781	0	0
71.572854148459058	15.041383819562871	0	0
64.769133038011745	31.778547538682989	0	0
69.504601823705471	22.760206578415801	0	0
86.660623128410606	28.378174003784373	0	0
87.273300013341313	29.711201011988663	0	0
82.720533968735481	40.702550543187833	0	0
81.344713551718641	41.211915000183147	0	0
65.241071686017492	33.053278860408469	0	0
67.906531164497721	60.861214135100646	0	0
54.463218004142526	48.812647570043254	0	0
54.337285019061099	47.459204954585182	0	0
61.245515014493662	39.973786020008532	0	0
76.362922104622925	49.840630899265065	0	0
76.609709753588533	51.286808559944596	0	0
69.367304859998768	60.725294377660013	0	0
10	0	0	1
-10	1.2246467991473533e-015	0	1
68.999999999999986	-1.60119474085333e-014	0	1
-69	-3.0962565419849028e-015	0	1
70.000000000000014	1.0097419586828951e-028	0	0
-70	-3.8619702817705453e-015	0	0
105	0	0	0
-105	1.2858791391047208e-014	0	0
[NumSegments] = 240
0	1	-1	0	0	1
2	3	-1	0	0	1
1	4	-1	0	0	1
5	1	-1	0	0	1
6	5	-1	0	0	1
3	7	-1	0	0	1
8	3	-1	0	0	1
9	8	-1	0	0	1
6	10	-1	0	0	1
9	11	-1	0	0	1
12	13	-1	0	0	1
14	13	-1	0	0	1
15	14	-1	0	0	1
13	16	-1	0	0	1
17	18	-1	0	0	1
19	17	-1	0	0	1
20	18	-1	0	0	1
18	21	-1	0	0	1
22	23	-1	0	0	1
24	25	-1	0	0	1
24	26	-1	0	0	1
27	28	-1	0	0	1
29	30	-1	0	0	1
26	23	-1	0	0	1
31	30	-1	0	0	1
32	33	-1	0	0	1
33	34	-1	0	0	1
35	34	-1	0	0	1
36	37	-1	0	0	1
38	39	-1	0	0	1
37	39	-1	0	0	1
39	40	-1	0	0	1
27	31	-1	0	0	1
41	19	-1	0	0	1
42	27	-1	0	0	1
43	30	-1	0	0	1
44	36	-1	0	0	1
45	32	-1	0	0	1
46	34	-1	0	0	1
47	23	-1	0	0	1
48	24	-1	0	0	1
49	15	-1	0	0	1
50	6	-1	0	0	1
51	9	-1	0	0	1
52	36	-1	0	0	1
53	19	-1	0	0	1
54	15	-1	0	0	1
55	32	-1	0	0	1
56	57	-1	0	0	0
58	59	-1	0	0	0
57	60	-1	0	0	0
61	62	-1	0	0	0
63	64	-1	0	0	0
62	65	-1	0	0	0
66	67	-1	0	0	0
68	69	-1	0	0	0
67	70	-1	0	0	0
71	72	-1	0	0	0
73	74	-1	0	0	0
72	75	-1	0	0	0
76	77	-1	0	0	0
78	79	-1	0	0	0
77	80	-1	0	0	0
81	82	-1	0	0	0
83	84	-1	0	0	0
82	85	-1	0	0	0
86	87	-1	0	0	0
88	89	-1	0	0	0
87	90	-1	0	0	0
91	92	-1	0	0	0
93	94	-1	0	0	0
92	95	-1	0	0	0
96	97	-1	0	0	0
98	99	-1	0	0	0
97	100	-1	0	0	0
101	102	-1	0	0	0
103	104	-1	0	0	0
102	105	-1	0	0	0
106	107	-1	0	0	0
108	109	-1	0	0	0
107	110	-1	0	0	0
111	112	-1	0	0	0
113	114	-1	0	0	0
112	115	-1	0	0	0
116	117	-1	0	0	0
118	119	-1	0	0	0
117	120	-1	0	0	0
121	122	-1	0	0	0
123	124	-1	0	0	0
122	125	-1	0	0	0
126	127	-1	0	0	0
128	129	-1	0	0	0
127	130	-1	0	0	0
131	132	-1	0	0	0
133	134	-1	0	0	0
132	135	-1	0	0	0
136	137	-1	0	0	0
138	139	-1	0	0	0
137	140	-1	0	0	0
141	142	-1	0	0	0
143	144	-1	0	0	0
142	145	-1	0	0	0
146	147	-1	0	0	0
148	149	-1	0	0	0
147	150	-1	0	0	0
151	152	-1	0	0	0
153	154	-1	0	0	0
152	155	-1	0	0	0
156	157	-1	0	0	0
158	159	-1	0	0	0
157	160	-1	0	0	0
161	162	-1	0	0	0
163	164	-1	0	0	0
162	165	-1	0	0	0
166	167	-1	0	0	0
168	169	-1	0	0	0
167	170	-1	0	0	0
171	172	-1	0	0	0
173	174	-1	0	0	0
172	175	-1	0	0	0
57	58	-1	0	0	0
62	63	-1	0	0	0
67	68	-1	0	0	0
72	73	-1	0	0	0
77	78	-1	0	0	0
82	83	-1	0	0	0
87	88	-1	0	0	0
92	93	-1	0	0	0
97	98	-1	0	0	0
102	103	-1	0	0	0
107	108	-1	0	0	0
112	113	-1	0	0	0
117	118	-1	0	0	0
122	123	-1	0	0	0
127	128	-1	0	0	0
132	133	-1	0	0	0
137	138	-1	0	0	0
142	143	-1	0	0	0
147	148	-1	0	0	0
152	153	-1	0	0	0
157	158	-1	0	0	0
162	163	-1	0	0	0
167	168	-1	0	0	0
172	173	-1	0	0	0
176	177	-1	0	0	0
178	179	-1	0	0	0
180	68	-1	0	0	0
181	182	-1	0	0	0
183	184	-1	0	0	0
185	186	-1	0	0	0
187	73	-1	0	0	0
188	189	-1	0	0	0
190	191	-1	0	0	0
192	193	-1	0	0	0
194	78	-1	0	0	0
195	196	-1	0	0	0
197	198	-1	0	0	0
199	200	-1	0	0	0
201	202	-1	0	0	0
203	83	-1	0	0	0
204	205	-1	0	0	0
206	207	-1	0	0	0
208	88	-1	0	0	0
209	210	-1	0	0	0
211	212	-1	0	0	0
213	214	-1	0	0	0
215	93	-1	0	0	0
216	217	-1	0	0	0
218	219	-1	0	0	0
220	221	-1	0	0	0
222	223	-1	0	0	0
224	98	-1	0	0	0
225	226	-1	0	0	0
227	228	-1	0	0	0
229	230	-1	0	0	0
231	103	-1	0	0	0
232	233	-1	0	0	0
234	235	-1	0	0	0
236	237	-1	0	0	0
238	108	-1	0	0	0
239	240	-1	0	0	0
241	242	-1	0	0	0
243	244	-1	0	0	0
245	113	-1	0	0	0
246	247	-1	0	0	0
248	249	-1	0	0	0
250	118	-1	0	0	0
251	252	-1	0	0	0
253	254	-1	0	0	0
255	256	-1	0	0	0
257	123	-1	0	0	0
258	259	-1	0	0	0
260	261	-1	0	0	0
262	263	-1	0	0	0
264	265	-1	0	0	0
266	128	-1	0	0	0
267	268	-1	0	0	0
269	270	-1	0	0	0
271	133	-1	0	0	0
272	273	-1	0	0	0
274	275	-1	0	0	0
276	138	-1	0	0	0
277	278	-1	0	0	0
279	280	-1	0	0	0
281	282	-1	0	0	0
283	143	-1	0	0	0
284	285	-1	0	0	0
286	287	-1	0	0	0
288	289	-1	0	0	0
290	291	-1	0	0	0
292	293	-1	0	0	0
294	148	-1	0	0	0
295	296	-1	0	0	0
297	298	-1	0	0	0
299	300	-1	0	0	0
301	153	-1	0	0	0
302	158	-1	0	0	0
303	304	-1	0	0	0
305	306	-1	0	0	0
307	308	-1	0	0	0
309	163	-1	0	0	0
310	311	-1	0	0	0
312	313	-1	0	0	0
314	315	-1	0	0	0
316	168	-1	0	0	0
317	318	-1	0	0	0
319	320	-1	0	0	0
321	322	-1	0	0	0
323	173	-1	0	0	0
324	325	-1	0	0	0
326	327	-1	0	0	0
328	329	-1	0	0	0
330	58	-1	0	0	0
331	332	-1	0	0	0
333	334	-1	0	0	0
335	336	-1	0	0	0
337	338	-1	0	0	0
339	63	-1	0	0	0
340	341	-1	0	0	0
342	343	-1	0	0	0
[NumArcSegments] = 144
344	345	180	5	0	0	1	5
345	344	180	5	0	0	1	5
346	38	23.035684105941357	5	0	0	1	5
29	20	46.071368211882714	5	0	0	1	5
2	347	23.035684105941328	5	0	0	1	5
347	0	23.035684105941328	5	0	0	1	5
12	22	46.071368211882714	5	0	0	1	5
35	346	23.035684105941357	5	0	0	1	5
41	21	90	5	0	0	1	5
43	42	90	5	0	0	1	5
44	40	90	5	0	0	1	5
46	45	90	5	0	0	1	5
48	47	90	5	0	0	1	5
16	49	90	5	0	0	1	5
50	4	90	5	0	0	1	5
7	51	90	5	0	0	1	5
28	52	90	5	0	0	1	5
11	53	90	5	0	0	1	5
54	10	90	5	0	0	1	5
55	25	90	5	0	0	1	5
348	171	5.2502512965423502	5	0	0	0	5
174	56	10.500502593084814	5	0	0	0	5
59	61	10.5005025930847	5	0	0	0	5
64	66	10.500502593084747	5	0	0	0	5
69	71	10.500502593084704	5	0	0	0	5
74	76	10.500502593084732	5	0	0	0	5
79	81	10.500502593084732	5	0	0	0	5
84	86	10.500502593084818	5	0	0	0	5
89	91	10.500502593084718	5	0	0	0	5
94	96	10.500502593084747	5	0	0	0	5
99	101	10.500502593084718	5	0	0	0	5
104	106	10.500502593084747	5	0	0	0	5
109	349	5.2502512965423591	5	0	0	0	5
349	111	5.2502512965423591	5	0	0	0	5
114	116	10.500502593084747	5	0	0	0	5
119	121	10.500502593084718	5	0	0	0	5
124	126	10.50050259308469	5	0	0	0	5
129	131	10.500502593084747	5	0	0	0	5
134	136	10.500502593084661	5	0	0	0	5
139	141	10.500502593084775	5	0	0	0	5
144	146	10.500502593084718	5	0	0	0	5
149	151	10.500502593084718	5	0	0	0	5
154	156	10.500502593084718	5	0	0	0	5
159	161	10.500502593084775	5	0	0	0	5
164	166	10.500502593084661	5	0	0	0	5
169	348	5.2502512965423875	5	0	0	0	5
350	351	180	5	1	0	0	5
351	350	180	5	1	0	0	5
179	176	94.368277434588634	5	0	0	0	5
182	178	94.368277434588435	5	0	0	0	5
177	180	85.631722565411366	5	0	0	0	5
70	181	85.631722565411621	5	0	0	0	5
186	183	94.368277434588578	5	0	0	0	5
189	185	94.368277434588379	5	0	0	0	5
184	187	85.63172256541057	5	0	0	0	5
75	188	85.631722565410627	5	0	0	0	5
196	190	94.368277434588492	5	0	0	0	5
191	192	94.368277434588421	5	0	0	0	5
193	194	85.631722565412105	5	0	0	0	5
80	195	85.631722565410996	5	0	0	0	5
202	197	94.368277434588435	5	0	0	0	5
198	199	94.368277434588194	5	0	0	0	5
85	201	85.631722565409973	5	0	0	0	5
200	203	85.631722565410996	5	0	0	0	5
210	204	94.368277434588606	5	0	0	0	5
205	206	94.368277434588578	5	0	0	0	5
207	208	85.631722565410684	5	0	0	0	5
90	209	85.631722565410598	5	0	0	0	5
217	211	94.36827743458862	5	0	0	0	5
212	213	94.368277434588393	5	0	0	0	5
214	215	85.631722565411621	5	0	0	0	5
95	216	85.631722565411394	5	0	0	0	5
223	218	94.368277434588379	5	0	0	0	5
219	220	94.368277434588634	5	0	0	0	5
100	222	85.631722565411621	5	0	0	0	5
221	224	85.631722565411394	5	0	0	0	5
228	225	94.368277434588379	5	0	0	0	5
105	227	85.631722565410655	5	0	0	0	5
226	229	94.368277434588578	5	0	0	0	5
230	231	85.631722565410598	5	0	0	0	5
110	232	85.631722565410996	5	0	0	0	5
233	234	94.368277434588478	5	0	0	0	5
235	236	94.368277434588435	5	0	0	0	5
237	238	85.631722565412133	5	0	0	0	5
242	239	94.368277434588435	5	0	0	0	5
115	241	85.631722565409973	5	0	0	0	5
240	243	94.368277434588151	5	0	0	0	5
244	245	85.631722565410996	5	0	0	0	5
120	246	85.631722565410598	5	0	0	0	5
247	248	94.368277434588592	5	0	0	0	5
252	250	85.631722565410655	5	0	0	0	5
249	251	94.368277434588606	5	0	0	0	5
125	253	85.631722565411394	5	0	0	0	5
254	255	94.36827743458862	5	0	0	0	5
259	257	85.631722565411621	5	0	0	0	5
256	258	94.36827743458835	5	0	0	0	5
130	260	85.631722565409888	5	0	0	0	5
261	262	94.368277434588407	5	0	0	0	5
263	264	94.368277434588606	5	0	0	0	5
265	266	85.631722565411394	5	0	0	0	5
135	267	85.631722565410684	5	0	0	0	5
268	269	94.368277434588578	5	0	0	0	5
273	271	85.631722565410598	5	0	0	0	5
270	272	94.368277434588606	5	0	0	0	5
140	274	85.631722565410996	5	0	0	0	5
280	276	85.631722565412247	5	0	0	0	5
275	277	94.368277434588492	5	0	0	0	5
278	279	94.368277434588435	5	0	0	0	5
145	281	85.631722565412133	5	0	0	0	5
287	283	85.631722565411692	5	0	0	0	5
282	284	94.368277434588464	5	0	0	0	5
285	286	94.368277434588492	5	0	0	0	5
150	288	85.631722565410584	5	0	0	0	5
289	290	94.368277434588549	5	0	0	0	5
291	292	94.368277434588379	5	0	0	0	5
293	294	85.631722565410641	5	0	0	0	5
155	295	85.631722565411351	5	0	0	0	5
296	297	94.368277434588634	5	0	0	0	5
298	299	94.368277434588435	5	0	0	0	5
300	301	85.631722565411621	5	0	0	0	5
308	302	85.631722565411366	5	0	0	0	5
160	303	85.631722565409859	5	0	0	0	5
304	305	94.368277434588407	5	0	0	0	5
306	307	94.368277434588606	5	0	0	0	5
315	309	85.631722565410612	5	0	0	0	5
165	310	85.631722565410627	5	0	0	0	5
311	312	94.368277434588606	5	0	0	0	5
313	314	94.368277434588606	5	0	0	0	5
322	316	85.631722565412218	5	0	0	0	5
170	317	85.631722565410996	5	0	0	0	5
318	319	94.368277434588492	5	0	0	0	5
320	321	94.368277434588435	5	0	0	0	5
329	323	85.631722565411678	5	0	0	0	5
175	324	85.631722565409973	5	0	0	0	5
325	326	94.368277434588492	5	0	0	0	5
327	328	94.368277434588478	5	0	0	0	5
336	330	85.631722565410627	5	0	0	0	5
60	331	85.631722565410627	5	0	0	0	5
332	333	94.368277434588606	5	0	0	0	5
334	335	94.368277434588592	5	0	0	0	5
343	337	94.368277434588407	5	0	0	0	5
338	339	85.63172256541165	5	0	0	0	5
65	340	85.631722565411366	5	0	0	0	5
341	342	94.368277434588606	5	0	0	0	5
[NumHoles] = 0
[NumBlockLabels] = 36
3	2	1	-1	0	0	1	1	0
0	50	2	-1	0	0	1	1	0
20	50	1	-1	4	0	1	30	0
50	20	1	-1	4	0	1	30	0
51	-20	1	-1	4	0	1	-30	0
22	-51	1	-1	4	0	1	-30	0
-22	-52	1	-1	4	0	1	30	0
-50	-22	1	-1	4	0	1	30	0
-50	22	1	-1	4	0	1	-30	0
-21	49	1	-1	4	0	1	-30	0
41	39	1	-1	0	0	1	1	0
0	98	2	-1	0	0	0	1	0
11	80	1	-1	1	0	0	8	0
31	76	1	-1	2	0	0	-8	0
50	64	1	-1	2	0	0	-8	0
65	49	1	-1	3	0	0	8	0
75	32	1	-1	3	0	0	8	0
81	10	1	-1	1	0	0	-8	0
81	-12	1	-1	1	0	0	-8	0
76	-32	1	-1	2	0	0	8	0
65	-51	1	-1	2	0	0	8	0
49	-67	1	-1	3	0	0	-8	0
30	-78	1	-1	3	0	0	-8	0
10	-84	1	-1	1	0	0	8	0
-11	-84	1	-1	1	0	0	8	0
-32	-78	1	-1	2	0	0	-8	0
-51	-67	1	-1	2	0	0	-8	0
-66	-50	1	-1	3	0	0	8	0
-77	-32	1	-1	3	0	0	8	0
-82	-12	1	-1	1	0	0	-8	0
-82	10	1	-1	1	0	0	-8	0
-77	31	1	-1	2	0	0	8	0
-65	49	1	-1	2	0	0	8	0
-50	66	1	-1	3	0	0	-8	0
-31	75	1	-1	3	0	0	-8	0
-11	81	1	-1	1	0	0	8	0
