[Format]      =  4.0
[Frequency]   =  0
[Precision]   =  1e-008
[MinAngle]    =  30
[DoSmartMesh] =  0
[Depth]       =  200
[LengthUnits] =  millimeters
[ProblemType] =  planar
[Coordinates] =  cartesian
[ACSolver]    =  0
[PrevType]    =  0
[PrevSoln]    =  ""
[Comment]     =  "Add comments here."
[PointProps]   = 0
[BdryProps]   = 6
  <BeginBdry>
    <BdryName> = "zero"
    <BdryType> = 0
    <A_0> = 0
    <A_1> = 0
    <A_2> = 0
    <Phi> = 0
    <c0> = 0
    <c0i> = 0
    <c1> = 0
    <c1i> = 0
    <Mu_ssd> = 0
    <Sigma_ssd> = 0
    <innerangle> = 0
    <outerangle> = 0
  <EndBdry>
  <BeginBdry>
    <BdryName> = "move"
    <BdryType> = 7
    <A_0> = 0
    <A_1> = 0
    <A_2> = 0
    <Phi> = 0
    <c0> = 0
    <c0i> = 0
    <c1> = 0
    <c1i> = 0
    <Mu_ssd> = 0
    <Sigma_ssd> = 0
    <innerangle> = 0
    <outerangle> = 0
  <EndBdry>
  <BeginBdry>
    <BdryName> = "p1"
    <BdryType> = 5
    <A_0> = 0
    <A_1> = 0
    <A_2> = 0
    <Phi> = 0
    <c0> = 0
    <c0i> = 0
    <c1> = 0
    <c1i> = 0
    <Mu_ssd> = 0
    <Sigma_ssd> = 0
    <innerangle> = 0
    <outerangle> = 0
  <EndBdry>
  <BeginBdry>
    <BdryName> = "p2"
    <BdryType> = 5
    <A_0> = 0
    <A_1> = 0
    <A_2> = 0
    <Phi> = 0
    <c0> = 0
    <c0i> = 0
    <c1> = 0
    <c1i> = 0
    <Mu_ssd> = 0
    <Sigma_ssd> = 0
    <innerangle> = 0
    <outerangle> = 0
  <EndBdry>
  <BeginBdry>
    <BdryName> = "p3"
    <BdryType> = 5
    <A_0> = 0
    <A_1> = 0
    <A_2> = 0
    <Phi> = 0
    <c0> = 0
    <c0i> = 0
    <c1> = 0
    <c1i> = 0
    <Mu_ssd> = 0
    <Sigma_ssd> = 0
    <innerangle> = 0
    <outerangle> = 0
  <EndBdry>
  <BeginBdry>
    <BdryName> = "p4"
    <BdryType> = 5
    <A_0> = 0
    <A_1> = 0
    <A_2> = 0
    <Phi> = 0
    <c0> = 0
    <c0i> = 0
    <c1> = 0
    <c1i> = 0
    <Mu_ssd> = 0
    <Sigma_ssd> = 0
    <innerangle> = 0
    <outerangle> = 0
  <EndBdry>
[BlockProps]  = 2
  <BeginBlock>
    <BlockName> = "Air"
    <Mu_x> = 1
    <Mu_y> = 1
    <H_c> = 0
    <H_cAngle> = 0
    <J_re> = 0
    <J_im> = 0
    <Sigma> = 0
    <d_lam> = 0
    <Phi_h> = 0
    <Phi_hx> = 0
    <Phi_hy> = 0
    <LamType> = 0
    <LamFill> = 1
    <NStrands> = 0
    <WireD> = 0
    <BHPoints> = 0
  <EndBlock>
  <BeginBlock>
    <BlockName> = "M-19 Steel"
    <Mu_x> = 4416
    <Mu_y> = 4416
    <H_c> = 0
    <H_cAngle> = 0
    <J_re> = 0
    <J_im> = 0
    <Sigma> = 1.8999999999999999
    <d_lam> = 0.63500000000000001
    <Phi_h> = 0
    <Phi_hx> = 0
    <Phi_hy> = 0
    <LamType> = 0
    <LamFill> = 0.97999999999999998
    <NStrands> = 0
    <WireD> = 0
    <BHPoints> = 47
      0	0
      0.050000000000000003	15.120714
      0.10000000000000001	22.718292000000002
      0.14999999999999999	27.842732999999999
      0.20000000000000001	31.871434000000001
      0.25	35.365043999999997
      0.29999999999999999	38.600588000000002
      0.34999999999999998	41.736201999999999
      0.40000000000000002	44.873978999999999
      0.45000000000000001	48.087806999999998
      0.5	51.437235999999999
      0.55000000000000004	54.975220999999998
      0.59999999999999998	58.752992999999996
      0.65000000000000002	62.823644000000002
      0.69999999999999996	67.245284999999996
      0.75	72.084406000000001
      0.80000000000000004	77.420100000000005
      0.84999999999999998	83.350020999999998
      0.90000000000000002	89.999611999999999
      0.94999999999999996	97.537352999999996
      1	106.20140600000001
      1.05	116.34846400000001
      1.1000000000000001	128.54732899999999
      1.1499999999999999	143.76543100000001
      1.2	163.75416899999999
      1.25	191.86815799999999
      1.3	234.833507
      1.3500000000000001	306.50976900000001
      1.3999999999999999	435.255202
      1.45	674.911968
      1.5	1108.3255690000001
      1.55	1813.085468
      1.6000000000000001	2801.2174209999998
      1.6499999999999999	4053.6531169999998
      1.7	5591.10689
      1.75	7448.318413
      1.8	9708.81567
      1.8500000000000001	12486.931615
      1.8999999999999999	16041.483644
      1.95	21249.420623999998
      2	31313.495878000002
      2.0499999999999998	53589.446877000002
      2.1000000000000001	88477.484601000004
      2.1499999999999999	124329.41054
      2.2000000000000002	159968.5693
      2.25	197751.604272
      2.2999999999999998	234024.75134700001
  <EndBlock>
[CircuitProps]  = 4
  <BeginCircuit>
    <CircuitName> = "a"
    <TotalAmps_re> = 0
    <TotalAmps_im> = 0
    <CircuitType> = 1
  <EndCircuit>
  <BeginCircuit>
    <CircuitName> = "b"
    <TotalAmps_re> = 0
    <TotalAmps_im> = 0
    <CircuitType> = 1
  <EndCircuit>
  <BeginCircuit>
    <CircuitName> = "c"
    <TotalAmps_re> = 50
    <TotalAmps_im> = 0
    <CircuitType> = 1
  <EndCircuit>
  <BeginCircuit>
    <CircuitName> = "d"
    <TotalAmps_re> = 0
    <TotalAmps_im> = 0
    <CircuitType> = 1
  <EndCircuit>
[NumPoints] = 48
11.5	0	0	0
-11.5	0	0	0
20	6.0800000000000001	0	0
33.349999999999994	6.0800000000000001	0	0
4.7345655449906019	20.36050807568877	0	0
11.409565544990613	31.921947216211031	0	0
15.265434455009398	14.28050807568877	0	0
21.940434455009381	25.841947216211025	0	0
-15.26543445500937	14.280508075688775	0	0
-21.940434455009381	25.841947216211032	0	0
-4.7345655449906019	20.360508075688774	0	0
-11.409565544990613	31.921947216211031	0	0
-20	6.0800000000000027	0	0
-33.349999999999994	6.0800000000000045	0	0
31.689067965137131	13.126041730122578	0	0
49.33516703610271	20.435295288295794	0	0
41.693036875589165	33.397465114747277	0	0
53.097003160068844	5.8658550459109318	0	0
28.07983859638993	19.748991478065157	0	0
33.820090081866276	5.8907984903958575	0	0
71.5	0	0	0
-71.5	0	0	0
13.12604173012258	31.689067965137134	0	0
20.435295288295798	49.33516703610271	0	0
5.86585504591093	53.097003160068837	0	0
33.397465114747277	41.693036875589165	0	0
5.8907984903958575	33.820090081866276	0	0
19.748991478065157	28.07983859638993	0	0
-13.126041730122576	31.689067965137131	0	0
-20.435295288295791	49.33516703610271	0	0
-33.397465114747277	41.693036875589165	0	0
-5.8658550459109282	53.097003160068844	0	0
-19.748991478065157	28.07983859638993	0	0
-5.8907984903958557	33.820090081866276	0	0
-31.689067965137134	13.12604173012258	0	0
-49.33516703610271	20.435295288295798	0	0
-53.097003160068837	5.86585504591093	0	0
-41.693036875589165	33.397465114747277	0	0
-33.820090081866276	5.8907984903958575	0	0
-28.07983859638993	19.748991478065157	0	0
34	0	0	0
-34	0	0	0
34.200000000000003	0	0	0
-34.200000000000003	0	0	0
33.908673517340844	0	0	0
-33.908673517340844	0	0	0
-34.304401878039407	0	0	0
34.304401878039414	0	0	0
[NumSegments] = 26
2	3	-1	0	0	0
4	5	-1	0	0	0
6	7	-1	0	0	0
8	9	-1	0	0	0
10	11	-1	0	0	0
12	13	-1	0	0	0
18	16	-1	0	0	0
14	15	-1	0	0	0
19	17	-1	0	0	0
26	24	-1	0	0	0
22	23	-1	0	0	0
27	25	-1	0	0	0
32	30	-1	0	0	0
28	29	-1	0	0	0
33	31	-1	0	0	0
38	36	-1	0	0	0
34	35	-1	0	0	0
39	37	-1	0	0	0
21	46	-1	3	0	0
46	43	-1	4	0	0
41	45	-1	5	0	0
45	1	-1	6	0	0
0	44	-1	6	0	0
44	40	-1	5	0	0
42	47	-1	4	0	0
47	20	-1	3	0	0
[NumArcSegments] = 32
0	1	180	5	1	0	0	5
2	6	26	1	0	0	0	1
4	10	26	1	0	0	0	1
8	12	26	1	0	0	0	1
7	5	21	1	0	0	0	1
11	9	21	1	0	0	0	1
13	45	10.500000000000007	1	0	0	0	1
20	21	180	5	1	0	0	5
14	18	12.6	1	0	0	0	1
19	14	12.6	1	0	0	0	1
17	15	16.199999999999999	1	0	0	0	1
15	16	16.199999999999999	1	0	0	0	1
22	26	12.6	1	0	0	0	1
27	22	12.6	1	0	0	0	1
25	23	16.199999999999999	1	0	0	0	1
23	24	16.199999999999999	1	0	0	0	1
28	32	12.6	1	0	0	0	1
33	28	12.6	1	0	0	0	1
31	29	16.199999999999999	1	0	0	0	1
29	30	16.199999999999999	1	0	0	0	1
34	38	12.6	1	0	0	0	1
39	34	12.6	1	0	0	0	1
37	35	16.199999999999999	1	0	0	0	1
35	36	16.199999999999999	1	0	0	0	1
18	27	18.800000000000001	1	0	0	0	1
26	33	18.800000000000001	1	0	0	0	1
32	39	18.800000000000001	1	0	0	0	1
38	46	9.4000000000000039	1	0	0	0	1
40	41	180	1	2	0	0	1
42	43	180	1	2	0	0	1
44	3	10.5	1	0	0	0	1
47	19	9.3999999999999986	1	0	0	0	1
[NumHoles] = 0
[NumBlockLabels] = 12
-40	10	1	2	1	0	0	-18	0
-40	20	1	2	2	0	0	18	0
-20	40	1	2	2	0	0	-18	0
-10	40	1	2	3	0	0	18	0
10	40	1	2	3	0	0	-18	0
20	40	1	2	4	0	0	18	0
40	20	1	-1	4	0	0	-18	0
40	10	1	2	1	0	0	-18	0
0	30	1	1	0	0	0	1	0
0	60	2	2	0	0	0	1	0
10	20	2	2	0	0	10	1	0
0	34.240000000000002	1	0.20000000000000001	0	0	0	1	0
